
data_
_chemical_name_mineral ?CsRHO_RH_CO2?
_cell_length_a  14.99454(84)
_cell_length_b  14.99454(84)
_cell_length_c  14.99454(84)
_cell_angle_alpha 90
_cell_angle_beta  90
_cell_angle_gamma 90
_cell_volume 3371.31(56)
_symmetry_space_group_name_H-M Im-3m
loop_
_symmetry_equiv_pos_as_xyz
	'-x, -y, -z'
	'-x, -y, z'
	'-x, -z, -y'
	'-x, -z, y'
	'-x, z, -y'
	'-x, z, y'
	'-x, y, -z'
	'-x, y, z'
	'-x+1/2, -y+1/2, -z+1/2'
	'-x+1/2, -y+1/2, z+1/2'
	'-x+1/2, -z+1/2, -y+1/2'
	'-x+1/2, -z+1/2, y+1/2'
	'-x+1/2, z+1/2, -y+1/2'
	'-x+1/2, z+1/2, y+1/2'
	'-x+1/2, y+1/2, -z+1/2'
	'-x+1/2, y+1/2, z+1/2'
	'-y, -x, -z'
	'-y, -x, z'
	'-y, -z, -x'
	'-y, -z, x'
	'-y, z, -x'
	'-y, z, x'
	'-y, x, -z'
	'-y, x, z'
	'-y+1/2, -x+1/2, -z+1/2'
	'-y+1/2, -x+1/2, z+1/2'
	'-y+1/2, -z+1/2, -x+1/2'
	'-y+1/2, -z+1/2, x+1/2'
	'-y+1/2, z+1/2, -x+1/2'
	'-y+1/2, z+1/2, x+1/2'
	'-y+1/2, x+1/2, -z+1/2'
	'-y+1/2, x+1/2, z+1/2'
	'-z, -x, -y'
	'-z, -x, y'
	'-z, -y, -x'
	'-z, -y, x'
	'-z, y, -x'
	'-z, y, x'
	'-z, x, -y'
	'-z, x, y'
	'-z+1/2, -x+1/2, -y+1/2'
	'-z+1/2, -x+1/2, y+1/2'
	'-z+1/2, -y+1/2, -x+1/2'
	'-z+1/2, -y+1/2, x+1/2'
	'-z+1/2, y+1/2, -x+1/2'
	'-z+1/2, y+1/2, x+1/2'
	'-z+1/2, x+1/2, -y+1/2'
	'-z+1/2, x+1/2, y+1/2'
	'z, -x, -y'
	'z, -x, y'
	'z, -y, -x'
	'z, -y, x'
	'z, y, -x'
	'z, y, x'
	'z, x, -y'
	'z, x, y'
	'z+1/2, -x+1/2, -y+1/2'
	'z+1/2, -x+1/2, y+1/2'
	'z+1/2, -y+1/2, -x+1/2'
	'z+1/2, -y+1/2, x+1/2'
	'z+1/2, y+1/2, -x+1/2'
	'z+1/2, y+1/2, x+1/2'
	'z+1/2, x+1/2, -y+1/2'
	'z+1/2, x+1/2, y+1/2'
	'y, -x, -z'
	'y, -x, z'
	'y, -z, -x'
	'y, -z, x'
	'y, z, -x'
	'y, z, x'
	'y, x, -z'
	'y, x, z'
	'y+1/2, -x+1/2, -z+1/2'
	'y+1/2, -x+1/2, z+1/2'
	'y+1/2, -z+1/2, -x+1/2'
	'y+1/2, -z+1/2, x+1/2'
	'y+1/2, z+1/2, -x+1/2'
	'y+1/2, z+1/2, x+1/2'
	'y+1/2, x+1/2, -z+1/2'
	'y+1/2, x+1/2, z+1/2'
	'x, -y, -z'
	'x, -y, z'
	'x, -z, -y'
	'x, -z, y'
	'x, z, -y'
	'x, z, y'
	'x, y, -z'
	'x, y, z'
	'x+1/2, -y+1/2, -z+1/2'
	'x+1/2, -y+1/2, z+1/2'
	'x+1/2, -z+1/2, -y+1/2'
	'x+1/2, -z+1/2, y+1/2'
	'x+1/2, z+1/2, -y+1/2'
	'x+1/2, z+1/2, y+1/2'
	'x+1/2, y+1/2, -z+1/2'
	'x+1/2, y+1/2, z+1/2'
loop_
_atom_site_label
_atom_site_type_symbol
_atom_site_symmetry_multiplicity
_atom_site_fract_x
_atom_site_fract_y
_atom_site_fract_z
_atom_site_occupancy
_atom_site_B_iso_or_equiv
Si1 Si+4   0 0.25 0.10557(18) 0.39443(18) 0.8126 2.54(13)
Al1 Al+3   0 0.25 0.10557(18) 0.39443(18) 0.1874 2.54(13)
O1 O-2   0 0 0.21934(44) 0.37873(29) 1 3.00(18)
O2 O-2   0 0.16414(25) 0.16414(25) 0.36270(40) 1 3.00(18)
Oc1a O-2   0 0.413459(93) 0 0 0.5 4.86(87)
Oc1b O-2   0 0.260177(93) 0 0 0.5 4.86(87)
Cc1 C   0 0.336805(66) 0 0 0.5 4.86(87)
Ow2 O-2   0 0.3803(17) 0.7112(24) 0.4866(92) 0.0900(57) 7.0(29)
Cs1 Cs+1   0 0.5 0.17940(25) 0.5 0.5 4.80(16)
#Cs2 Cs+1   0 0.37300(31) 0.37300(31) 0.37300(31) 0.1875 4.80(16)
